FoamFile
{
    version 2.0;
    format ascii;
    class dictionary;
    object transportProperties;
}

moldTemperature 330;

CrossWLFCoeffs
{
    n       0.30;
    tauStar 15000;
    D1      1.2e12;
    D2      417.15;
    D3      0.0;
    A1      29.0;
    A2      51.6;
}
